data_MFI
_audit_creation_date              2025-08-11
_audit_creation_method            'Materials Studio'
_symmetry_space_group_name_H-M    'PNMA'
_symmetry_Int_Tables_number       62
_symmetry_cell_setting            orthorhombic
loop_
_symmetry_equiv_pos_as_xyz
  x,y,z
  -x+1/2,-y,z+1/2
  -x,y+1/2,-z
  x+1/2,-y+1/2,-z+1/2
  -x,-y,-z
  x+1/2,y,-z+1/2
  x,-y+1/2,z
  -x+1/2,y+1/2,z+1/2
_cell_length_a                    20.0220
_cell_length_b                    19.8990
_cell_length_c                    13.3830
_cell_angle_alpha                 90.0000
_cell_angle_beta                  90.0000
_cell_angle_gamma                 90.0000
loop_
_atom_site_label
_atom_site_type_symbol
_atom_site_fract_x
_atom_site_fract_y
_atom_site_fract_z
_atom_site_U_iso_or_equiv
_atom_site_adp_type
_atom_site_occupancy
Si1    Si    0.42238   0.05650   0.66402   0.00000  Uiso   1.00
Si2    Si    0.30716   0.02772   0.81070   0.00000  Uiso   1.00
Si3    Si    0.27911   0.06127   0.03120   0.00000  Uiso   1.00
Si4    Si    0.12215   0.06298   0.02670   0.00000  Uiso   1.00
Si5    Si    0.07128   0.02722   0.81449   0.00000  Uiso   1.00
Si6    Si    0.18641   0.05896   0.67182   0.00000  Uiso   1.00
Si7    Si    0.42265   0.82750   0.67282   0.00000  Uiso   1.00
Si8    Si    0.30778   0.86984   0.81452   0.00000  Uiso   1.00
Si9    Si    0.27554   0.82721   0.03109   0.00000  Uiso   1.00
Si10   Si    0.12058   0.82690   0.02979   0.00000  Uiso   1.00
Si11   Si    0.07044   0.86963   0.81800   0.00000  Uiso   1.00
Si12   Si    0.18706   0.82673   0.68067   0.00000  Uiso   1.00
O13    O     0.37260   0.05340   0.75580   0.00000  Uiso   1.00
O14    O     0.30840   0.05870   0.92110   0.00000  Uiso   1.00
O15    O     0.20070   0.05920   0.02890   0.00000  Uiso   1.00
O16    O     0.09690   0.06110   0.91440   0.00000  Uiso   1.00
O17    O     0.11490   0.05410   0.72370   0.00000  Uiso   1.00
O18    O     0.24350   0.05530   0.75400   0.00000  Uiso   1.00
O19    O     0.37420   0.84390   0.76280   0.00000  Uiso   1.00
O20    O     0.30850   0.84480   0.92720   0.00000  Uiso   1.00
O21    O     0.19800   0.84460   0.02880   0.00000  Uiso   1.00
O22    O     0.09100   0.83860   0.92230   0.00000  Uiso   1.00
O23    O     0.11690   0.84220   0.73060   0.00000  Uiso   1.00
O24    O     0.24480   0.84060   0.75780   0.00000  Uiso   1.00
O25    O     0.30470   0.94900   0.81340   0.00000  Uiso   1.00
O26    O     0.07680   0.94810   0.82310   0.00000  Uiso   1.00
O27    O     0.41610   0.12760   0.61040   0.00000  Uiso   1.00
O28    O     0.40860   0.99830   0.58640   0.00000  Uiso   1.00
O29    O     0.40200   0.86860   0.57610   0.00000  Uiso   1.00
O30    O     0.18860   0.12980   0.61640   0.00000  Uiso   1.00
O31    O     0.19400   0.00070   0.59180   0.00000  Uiso   1.00
O32    O     0.19510   0.87090   0.58100   0.00000  Uiso   1.00
O33    O     0.99600   0.04250   0.79220   0.00000  Uiso   1.00
O34    O     0.99600   0.84720   0.79220   0.00000  Uiso   1.00
O35    O     0.41920   0.75000   0.64600   0.00000  Uiso   1.00
O36    O     0.18840   0.75000   0.64620   0.00000  Uiso   1.00
O37    O     0.28830   0.75000   0.05790   0.00000  Uiso   1.00
O38    O     0.10850   0.75000   0.06110   0.00000  Uiso   1.00
loop_
_geom_bond_atom_site_label_1
_geom_bond_atom_site_label_2
_geom_bond_distance
_geom_bond_site_symmetry_2
_ccdc_geom_bond_type
Si1    O13     1.583   .     S
Si1    O27     1.591   .     S
Si1    O28     1.580   1_545 S
Si1    O33     1.610   6_456 S
Si2    O13     1.587   .     S
Si2    O14     1.601   .     S
Si2    O18     1.582   .     S
Si2    O25     1.568   1_545 S
Si3    O15     1.571   .     S
Si3    O31     1.571   2_554 S
Si3    O32     1.591   2_564 S
Si3    O14     1.587   1_554 S
Si4    O15     1.575   .     S
Si4    O28     1.583   2_564 S
Si4    O29     1.589   2_564 S
Si4    O16     1.586   1_554 S
Si5    O16     1.583   .     S
Si5    O17     1.589   .     S
Si5    O26     1.583   1_545 S
Si5    O33     1.566   1_455 S
Si6    O17     1.594   .     S
Si6    O18     1.588   .     S
Si6    O30     1.593   .     S
Si6    O31     1.586   .     S
Si7    O35     1.585   .     S
Si7    O19     1.580   .     S
Si7    O29     1.586   .     S
Si7    O34     1.590   6_456 S
Si8    O19     1.586   .     S
Si8    O20     1.588   .     S
Si8    O24     1.583   .     S
Si8    O25     1.577   .     S
Si9    O37     1.598   .     S
Si9    O21     1.591   .     S
Si9    O30     1.597   2_564 S
Si9    O20     1.578   1_554 S
Si10   O38     1.605   .     S
Si10   O21     1.590   .     S
Si10   O27     1.588   2_564 S
Si10   O22     1.573   1_554 S
Si11   O22     1.581   .     S
Si11   O23     1.591   .     S
Si11   O26     1.568   .     S
Si11   O34     1.594   1_455 S
Si12   O36     1.595   .     S
Si12   O23     1.586   .     S
Si12   O24     1.574   .     S
Si12   O32     1.606   .     S
O14    Si3     1.587   1_556 S
O16    Si4     1.586   1_556 S
O20    Si9     1.578   1_556 S
O22    Si10    1.573   1_556 S
O25    Si2     1.568   1_565 S
O26    Si5     1.583   1_565 S
O27    Si10    1.588   2_565 S
O28    Si1     1.580   1_565 S
O28    Si4     1.583   2_565 S
O29    Si4     1.589   2_565 S
O30    Si9     1.597   2_565 S
O31    Si3     1.571   2     S
O32    Si3     1.591   2_565 S
O33    Si1     1.610   6_556 S
O33    Si5     1.566   1_655 S
O34    Si7     1.590   6_556 S
O34    Si11    1.594   1_655 S
O35    Si7     1.585   7_565 S
O36    Si12    1.595   7_565 S
O37    Si9     1.598   7_565 S
O38    Si10    1.605   7_565 S
